quiz1.glm
// Clock
clock {
    timezone AWST-8;
    timestamp '2000-01-01 00:00:00';
}

// Modules

module powerflow {
    // solver_method NR; // default is Gauss-Seidel; NR => Newton-Raphson
}

// Node Objects
object node {
    name "node_650"; //this is probably the substation (check one line diagram)

    // Default values in busstype
    //  enumeration {SWING_PQ=3, SWING=2, PV=1, PQ=0} bustype;  defines whether the node is a PQ, PV, or SWING node
    // PV - constant voltage
    // PQ - constant power
    bustype 2; // in this quiz this will be determined depending sa load
    phases "ABCN";
    nominal_voltage 2401.7771; //line to neutral voltage
}

object node {
    name "node_646";

    // Default values in busstype
    //  enumeration {SWING_PQ=3, SWING=2, PV=1, PQ=0} bustype;  defines whether the node is a PQ, PV, or SWING node
    // PV - constant voltage
    // PQ - constant power
    bustype 2; // in this quiz this will be determined depending sa load
    phases "BC";
    nominal_voltage 2401.7771; //line to neutral voltage
}

object node {
    name "node_645";
    bustype 2; // in this quiz this will be determined depending sa load
    phases "BCN";
    nominal_voltage 2401.7771; //line to neutral voltage
}

object node {
    name "node_632";
    bustype 2; // in this quiz this will be determined depending sa load
    phases "ABCN";
    nominal_voltage 2401.7771; //line to neutral voltage
}

object node {
    name "node_633";
    bustype 2; // in this quiz this will be determined depending sa load
    phases "ABCN";
    nominal_voltage 2401.7771; //line to neutral voltage
}

object node {
    name "node_634";
    bustype 2; // in this quiz this will be determined depending sa load
    phases "ABCN";
    nominal_voltage 2401.7771; //line to neutral voltage
}

object node {
    name "node_611";
    bustype 2; // in this quiz this will be determined depending sa load
    phases "CN";
    nominal_voltage 2401.7771; //line to neutral voltage
}

object node {
    name "node_684";
    bustype 2; // in this quiz this will be determined depending sa load
    phases "ACN";
    nominal_voltage 2401.7771; //line to neutral voltage
}

object node {
    name "node_671";
    bustype 2; // in this quiz this will be determined depending sa load
    phases "ABCN";
    nominal_voltage 2401.7771; //line to neutral voltage
}

object node {
    name "node_692";
    bustype 2; // in this quiz this will be determined depending sa load
    phases "ABCN";
    nominal_voltage 2401.7771; //line to neutral voltage
}

object node {
    name "node_675";
    bustype 2; // in this quiz this will be determined depending sa load
    phases "ABCN";
    nominal_voltage 2401.7771; //line to neutral voltage
}

object node {
    name "node_652";
    bustype 2; // in this quiz this will be determined depending sa load
    phases "AN";
    nominal_voltage 2401.7771; //line to neutral voltage
}

object node {
    name "node_680";
    bustype 2; // in this quiz this will be determined depending sa load
    phases "ABCN";
    nominal_voltage 2401.7771; //line to neutral voltage
}


// Overhead line conductors
object overhead_line_conductor{  
    name "ovl_cond_601";
    geometric_mean_radius 0.0313;
    resistance 0.1859;
}

object overhead_line_conductor{
    name "ovl_cond_602";
    geometric_mean_radius 0.00814;
    resistance 0.410;
    diameter 0.563;
}

object overhead_line_conductor{
    name "ovl_cond_603";
    geometric_mean_radius 0.00446;
    resistance 1.12;
    diameter 0.398;
}

object overhead_line_conductor{
    name "ovl_cond_604";
    geometric_mean_radius 0.00446;
    resistance 1.12;
    diameter 0.398;
}

object overhead_line_conductor{
    name "ovl_cond_605";
    geometric_mean_radius 0.00446;
    resistance 1.12;
    diameter 0.398;
}


// TODO: Recheck values for underground line conductors
// Underground line conductors
object underground_line_conductor{
    name "undgl_cond_606";
    outer_diameter 1.290000;
    conductor_gmr 0.017100;
    conductor_diameter 0.567000;
    conductor_resistance 0.410000;
    neutral_gmr 0.0020800; 
    neutral_resistance 14.87200;  
    neutral_diameter 0.0640837;
    neutral_strands 13.000000;
    shield_gmr 0.000000;
    shield_resistance 0.000000;
}

object underground_line_conductor{
    name "undgl_cond_607";
    outer_diameter 1.06;
    conductor_gmr 0.0111;
    conductor_diameter 0.368;
    conductor_resistance 0.97;
    neutral_gmr 0.0111;
    neutral_resistance 0.97;
    neutral_diameter 0.0640837;
    neutral_strands 6.0;
    shield_gmr 0.0;
    shield_resistance 0.0;
}

// line spacing objects
object line_spacing{
    // spacing ID 500
    // phasing BACN
    name "ovl_ls_601";
    distance_AB 2.5;
	distance_AC 4.5;
	distance_BC 7.0;
	distance_BN 5.656854;
	distance_AN 4.272002;
	distance_CN 5.0;
}

object line_spacing{
    // spacing ID 500
    // phasing CABN
    name "ovl_ls_602";
    distance_AC 2.5;
	distance_AB 4.5;
	distance_BC 7.0;
	distance_CN 5.656854;
	distance_AN 4.272002;
	distance_BN 5.0;
}

object line_spacing{
    // spacing ID 505
    // phasing CABN
    name "ovl_ls_603";
    distance_AC 0.0;
	distance_AB 0.0;
	distance_BC 7.0;
	distance_AN 0.0;
	distance_CN 5.656854;
	distance_BN 5.0;
}

object line_spacing{
    // spacing ID 505
    // phasing CABN
    name "ovl_ls_604";
    distance_AC 7.0;
	distance_AB 0.0;
	distance_BC 0.0;
	distance_AN 5.656854;
	distance_CN 5.0;
	distance_BN 0.0;
}

object line_spacing{
    // spacing ID 510
    // phasing CABN
    name "ovl_ls_605";
    distance_AC 0.0;
	distance_AB 0.0;
	distance_BC 0.0;
	distance_AN 0.0;
	distance_CN 5.02494; // magkaiba ito sa IEEE 13 na file
	distance_BN 0.0;
}

// Underground line spacing
object line_spacing{
    name "undgl_ls_515";
    distance_AB 6.0;
    distance_BC 6.0;
    distance_AC 12.0;
    distance_AN 0.0;
    distance_BN 0.0;
    distance_CN 0.0;
}

object line_spacing{
    name "undgl_ls_520";
    distance_AB 1.0;
    distance_BC 0.0;
    distance_AC 0.0;
    distance_AN 0.0;
    distance_BN 0.0;
    distance_CN 0.0;
}


// line configuration objects

object line_configuration{
    name "ovl_config_601";
    conductor_A "ovl_cond_601";
    conductor_B "ovl_cond_601";
    conductor_C "ovl_cond_601";
    conductor_N "ovl_cond_601";
    spacing "ovl_ls_601";
}

object line_configuration{
    name "ovl_config_602";
    conductor_A "ovl_cond_602";
    conductor_B "ovl_cond_602";
    conductor_C "ovl_cond_602";
    conductor_N "ovl_cond_602";
    spacing "ovl_ls_602";
}

object line_configuration{
    name "ovl_config_603";
    conductor_B "ovl_cond_603";
    conductor_C "ovl_cond_603";
    conductor_N "ovl_cond_603";
    spacing "ovl_ls_603";
}

object line_configuration{
    name "ovl_config_604";
    conductor_A "ovl_cond_604";
    conductor_C "ovl_cond_604";
    conductor_N "ovl_cond_604";
    spacing "ovl_ls_604";
}

object line_configuration{
    name "ovl_config_605";
    conductor_C "ovl_cond_605";
    conductor_N "ovl_cond_605";
    spacing "ovl_ls_605";
}

// Underground line configuration
object line_configuration{
    name "undgl_config_606";
    conductor_A "undgl_cond_606";
    conductor_B "undgl_cond_606";
    conductor_C "undgl_cond_606";
    conductor_N "undgl_cond_606";
    spacing "undgl_ls_515";
}

object line_configuration{
    name "undgl_config_607";
    conductor_A "undgl_cond_607";
    conductor_N "undgl_cond_607";
    spacing "undgl_ls_520";
}

// Overhead line objects
object overhead_line{
    name "ovl_632_645";
    from "node_632";
    to "node_645";
    phases "CBN";
    length 500;
    configuration "ovl_config_603";
}

object overhead_line{
    name "ovl_632_633";
    from "node_632";
    to "node_633";
    phases "ABCN";
    length 500;
    configuration "ovl_config_602";
}

// object overhead_line{ //TODO:for transformer line

// }

object overhead_line{
    name "ovl_645_646";
    from "node_645";
    to "node_646";
    phases "CBN";
    length 300;
    configuration "ovl_config_603"; 
}

object overhead_line{
    name "ovl_650_632";
    from "node_650";
    to "node_632";
    phases "ABCN";
    length 2000;
    configuration "ovl_config_601"; 
}


object overhead_line{
    name "ovl_632_671";
    from "node_632";
    to "node_671";
    phases "ABCN";
    length 2000;
    configuration "ovl_config_601"; 
}

object overhead_line{
    name "ovl_671_684";
    from "node_671";
    to "node_684";
    phases "ACN";
    length 300;
    configuration "ovl_config_604"; 
}

object overhead_line{
    name "ovl_671_680";
    from "node_671";
    to "node_680";
    phases "ABCN";
    length 1000;
    configuration "ovl_config_601"; 
}

// object overhead_line{ //TODO: object line segment for switch 671-692


// }

object overhead_line{
    name "ovl_684_611";
    from "node_684";
    to "node_611";
    phases "CN";
    length 300;
    configuration "ovl_config_605"; 
}

object underground_line{
    name "undgl_692_675";
    from "node_692";
    to "node_675";
    phases "ABCN";
    length 500;
    configuration "undgl_config_606"; 
}

object underground_line{
    name "undgl_684_652";
    from "node_684";
    to "node_652";
    phases "AN";
    length 800;
    configuration "undgl_config_607"; 
}

// Capacitor
object capacitor{
    name "cap_001";
    phases "ABCN";
    pt_phase "ABCN";
    phases_connected "ABCN";
    parent "node_675";
    control VOLT;
    capacitor_A 200000;
    capacitor_B 200000;
    capacitor_C 200000;
    nominal_voltage 2401.7771;
    voltage_set_high 2800.0;
    voltage_set_low 2200.0;
    time_delay 300.0;
    dwell_time 0.0;
    control_level INDIVIDUAL;
    switchA CLOSED;				
	switchB CLOSED;
	switchC CLOSED;
}

object capacitor{
    name "cap_002";
    phases "CN";
    pt_phase "CN";
    phases_connected "CN";
    parent "node_611";
    control VOLT;
    capacitor_A 0.0;
    capacitor_B 0.0;
    capacitor_C 200000.0;
    nominal_voltage 2401.7771;
    voltage_set_high 2800.0;
    voltage_set_low 2200.0;
    time_delay 300.0;
    dwell_time 0.0;
    control_level INDIVIDUAL;
    switchA CLOSED;				
	switchB CLOSED;
	switchC CLOSED;
}

